/*--------------------------------*- C++ -*----------------------------------*\
| =========                 |                                                 |
| \\      /  F ield         | OpenFOAM: The Open Source CFD Toolbox           |
|  \\    /   O peration     | Version:  2312                                  |
|   \\  /    A nd           | Website:  www.openfoam.com                      |
|    \\/     M anipulation  |                                                 |
\*---------------------------------------------------------------------------*/
FoamFile
{
    version     2.0;
    format      ascii;
    arch        "LSB;label=32;scalar=64";
    class       polyBoundaryMesh;
    location    "constant/polyMesh";
    object      boundary;
}
// * * * * * * * * * * * * * * * * * * * * * * * * * * * * * * * * * * * * * //

11
(
    inletLow
    {
        type            patch;
        nFaces          0;
        startFace       6383;
    }
    inletJet
    {
        type            patch;
        nFaces          0;
        startFace       6383;
    }
    inletHigh
    {
        type            patch;
        nFaces          0;
        startFace       6383;
    }
    outlet
    {
        type            patch;
        nFaces          0;
        startFace       6383;
    }
    upperWall
    {
        type            patch;
        nFaces          51;
        startFace       6383;
    }
    lowerWall
    {
        type            patch;
        nFaces          0;
        startFace       6434;
    }
    frontAndBack
    {
        type            empty;
        inGroups        1(empty);
        nFaces          6500;
        startFace       6434;
    }
    procBoundary2to0
    {
        type            processor;
        inGroups        1(processor);
        nFaces          66;
        startFace       12934;
        matchTolerance  0.0001;
        transform       unknown;
        myProcNo        2;
        neighbProcNo    0;
    }
    procBoundary2to3
    {
        type            processor;
        inGroups        1(processor);
        nFaces          68;
        startFace       13000;
        matchTolerance  0.0001;
        transform       unknown;
        myProcNo        2;
        neighbProcNo    3;
    }
    procBoundary2to5
    {
        type            processor;
        inGroups        1(processor);
        nFaces          5;
        startFace       13068;
        matchTolerance  0.0001;
        transform       unknown;
        myProcNo        2;
        neighbProcNo    5;
    }
    procBoundary2to6
    {
        type            processor;
        inGroups        1(processor);
        nFaces          44;
        startFace       13073;
        matchTolerance  0.0001;
        transform       unknown;
        myProcNo        2;
        neighbProcNo    6;
    }
)

// ************************************************************************* //
