/*--------------------------------*- C++ -*----------------------------------*\
| =========                 |                                                 |
| \\      /  F ield         | OpenFOAM: The Open Source CFD Toolbox           |
|  \\    /   O peration     | Version:  2312                                  |
|   \\  /    A nd           | Website:  www.openfoam.com                      |
|    \\/     M anipulation  |                                                 |
\*---------------------------------------------------------------------------*/
FoamFile
{
    version     2.0;
    format      ascii;
    arch        "LSB;label=32;scalar=64";
    class       polyBoundaryMesh;
    location    "constant/polyMesh";
    object      boundary;
}
// * * * * * * * * * * * * * * * * * * * * * * * * * * * * * * * * * * * * * //

9
(
    inletLow
    {
        type            patch;
        nFaces          0;
        startFace       6327;
    }
    inletJet
    {
        type            patch;
        nFaces          0;
        startFace       6327;
    }
    inletHigh
    {
        type            patch;
        nFaces          0;
        startFace       6327;
    }
    outlet
    {
        type            patch;
        nFaces          65;
        startFace       6327;
    }
    upperWall
    {
        type            patch;
        nFaces          56;
        startFace       6392;
    }
    lowerWall
    {
        type            patch;
        nFaces          0;
        startFace       6448;
    }
    frontAndBack
    {
        type            empty;
        inGroups        1(empty);
        nFaces          6448;
        startFace       6448;
    }
    procBoundary1to0
    {
        type            processor;
        inGroups        1(processor);
        nFaces          80;
        startFace       12896;
        matchTolerance  0.0001;
        transform       unknown;
        myProcNo        1;
        neighbProcNo    0;
    }
    procBoundary1to4
    {
        type            processor;
        inGroups        1(processor);
        nFaces          41;
        startFace       12976;
        matchTolerance  0.0001;
        transform       unknown;
        myProcNo        1;
        neighbProcNo    4;
    }
)

// ************************************************************************* //
