/*--------------------------------*- C++ -*----------------------------------*\
| =========                 |                                                 |
| \\      /  F ield         | OpenFOAM: The Open Source CFD Toolbox           |
|  \\    /   O peration     | Version:  2312                                  |
|   \\  /    A nd           | Website:  www.openfoam.com                      |
|    \\/     M anipulation  |                                                 |
\*---------------------------------------------------------------------------*/
FoamFile
{
    version     2.0;
    format      ascii;
    arch        "LSB;label=32;scalar=64";
    class       polyBoundaryMesh;
    location    "constant/polyMesh";
    object      boundary;
}
// * * * * * * * * * * * * * * * * * * * * * * * * * * * * * * * * * * * * * //

11
(
    inletLow
    {
        type            patch;
        nFaces          0;
        startFace       6378;
    }
    inletJet
    {
        type            patch;
        nFaces          0;
        startFace       6378;
    }
    inletHigh
    {
        type            patch;
        nFaces          0;
        startFace       6378;
    }
    outlet
    {
        type            patch;
        nFaces          0;
        startFace       6378;
    }
    upperWall
    {
        type            patch;
        nFaces          44;
        startFace       6378;
    }
    lowerWall
    {
        type            patch;
        nFaces          0;
        startFace       6422;
    }
    frontAndBack
    {
        type            empty;
        inGroups        1(empty);
        nFaces          6502;
        startFace       6422;
    }
    procBoundary0to1
    {
        type            processor;
        inGroups        1(processor);
        nFaces          80;
        startFace       12924;
        matchTolerance  0.0001;
        transform       unknown;
        myProcNo        0;
        neighbProcNo    1;
    }
    procBoundary0to2
    {
        type            processor;
        inGroups        1(processor);
        nFaces          66;
        startFace       13004;
        matchTolerance  0.0001;
        transform       unknown;
        myProcNo        0;
        neighbProcNo    2;
    }
    procBoundary0to4
    {
        type            processor;
        inGroups        1(processor);
        nFaces          6;
        startFace       13070;
        matchTolerance  0.0001;
        transform       unknown;
        myProcNo        0;
        neighbProcNo    4;
    }
    procBoundary0to5
    {
        type            processor;
        inGroups        1(processor);
        nFaces          52;
        startFace       13076;
        matchTolerance  0.0001;
        transform       unknown;
        myProcNo        0;
        neighbProcNo    5;
    }
)

// ************************************************************************* //
