/*--------------------------------*- C++ -*----------------------------------*\
| =========                 |                                                 |
| \\      /  F ield         | OpenFOAM: The Open Source CFD Toolbox           |
|  \\    /   O peration     | Version:  2312                                  |
|   \\  /    A nd           | Website:  www.openfoam.com                      |
|    \\/     M anipulation  |                                                 |
\*---------------------------------------------------------------------------*/
FoamFile
{
    version     2.0;
    format      ascii;
    arch        "LSB;label=32;scalar=64";
    class       polyBoundaryMesh;
    location    "constant/polyMesh";
    object      boundary;
}
// * * * * * * * * * * * * * * * * * * * * * * * * * * * * * * * * * * * * * //

10
(
    inletLow
    {
        type            patch;
        nFaces          0;
        startFace       6433;
    }
    inletJet
    {
        type            patch;
        nFaces          5;
        startFace       6433;
    }
    inletHigh
    {
        type            patch;
        nFaces          60;
        startFace       6438;
    }
    outlet
    {
        type            patch;
        nFaces          0;
        startFace       6498;
    }
    upperWall
    {
        type            patch;
        nFaces          49;
        startFace       6498;
    }
    lowerWall
    {
        type            patch;
        nFaces          0;
        startFace       6547;
    }
    frontAndBack
    {
        type            empty;
        inGroups        1(empty);
        nFaces          6550;
        startFace       6547;
    }
    procBoundary3to2
    {
        type            processor;
        inGroups        1(processor);
        nFaces          68;
        startFace       13097;
        matchTolerance  0.0001;
        transform       unknown;
        myProcNo        3;
        neighbProcNo    2;
    }
    procBoundary3to6
    {
        type            processor;
        inGroups        1(processor);
        nFaces          8;
        startFace       13165;
        matchTolerance  0.0001;
        transform       unknown;
        myProcNo        3;
        neighbProcNo    6;
    }
    procBoundary3to7
    {
        type            processor;
        inGroups        1(processor);
        nFaces          44;
        startFace       13173;
        matchTolerance  0.0001;
        transform       unknown;
        myProcNo        3;
        neighbProcNo    7;
    }
)

// ************************************************************************* //
