/*--------------------------------*- C++ -*----------------------------------*\
| =========                 |                                                 |
| \\      /  F ield         | OpenFOAM: The Open Source CFD Toolbox           |
|  \\    /   O peration     | Version:  v2506                                 |
|   \\  /    A nd           | Website:  www.openfoam.com                      |
|    \\/     M anipulation  |                                                 |
\*---------------------------------------------------------------------------*/
FoamFile
{
    version     2.0;
    format      ascii;
    class       dictionary;
    object      fvSchemes;
}
// * * * * * * * * * * * * * * * * * * * * * * * * * * * * * * * * * * * * * //

ddtSchemes
{
    default         Euler;
}

gradSchemes
{
    default         Gauss linear;
}

divSchemes
{
    default         none;

    div(phi,U)      Gauss LUST grad(U);

    div(phi,e)      Gauss LUST grad(e);
    div(phi,K)      Gauss linear;
    div(phi,Yi_h)   Gauss limitedLinear 1;
    div(phiv,p)     Gauss linear;

    div(phi,k)      Gauss limitedLinear 1;
    div(phi,Ekp)      Gauss upwind;
    div(phi,omega)      Gauss upwind;
    div(phi,epsilon)      Gauss upwind;
    div(phi,B)      Gauss limitedLinear 1;
    div(B)          Gauss linear;

    div(((rho*nuEff)*dev2(T(grad(U))))) Gauss linear;
}

laplacianSchemes
{
    default         Gauss linear corrected;
}

interpolationSchemes
{
    default         linear;
}

snGradSchemes
{
    default         orthoganal;
}

wallDist
{
    method          meshWave;
}

// ************************************************************************* //
