/*--------------------------------*- C++ -*----------------------------------*\
| =========                 |                                                 |
| \\      /  F ield         | OpenFOAM: The Open Source CFD Toolbox           |
|  \\    /   O peration     | Version:  2312                                  |
|   \\  /    A nd           | Website:  www.openfoam.com                      |
|    \\/     M anipulation  |                                                 |
\*---------------------------------------------------------------------------*/
FoamFile
{
    version     2.0;
    format      ascii;
    arch        "LSB;label=32;scalar=64";
    class       polyBoundaryMesh;
    location    "constant/polyMesh";
    object      boundary;
}
// * * * * * * * * * * * * * * * * * * * * * * * * * * * * * * * * * * * * * //

11
(
    inletLow
    {
        type            patch;
        nFaces          0;
        startFace       6378;
    }
    inletJet
    {
        type            patch;
        nFaces          0;
        startFace       6378;
    }
    inletHigh
    {
        type            patch;
        nFaces          0;
        startFace       6378;
    }
    outlet
    {
        type            patch;
        nFaces          0;
        startFace       6378;
    }
    upperWall
    {
        type            patch;
        nFaces          0;
        startFace       6378;
    }
    lowerWall
    {
        type            patch;
        nFaces          44;
        startFace       6378;
    }
    frontAndBack
    {
        type            empty;
        inGroups        1(empty);
        nFaces          6500;
        startFace       6422;
    }
    procBoundary5to0
    {
        type            processor;
        inGroups        1(processor);
        nFaces          52;
        startFace       12922;
        matchTolerance  0.0001;
        transform       unknown;
        myProcNo        5;
        neighbProcNo    0;
    }
    procBoundary5to2
    {
        type            processor;
        inGroups        1(processor);
        nFaces          5;
        startFace       12974;
        matchTolerance  0.0001;
        transform       unknown;
        myProcNo        5;
        neighbProcNo    2;
    }
    procBoundary5to4
    {
        type            processor;
        inGroups        1(processor);
        nFaces          69;
        startFace       12979;
        matchTolerance  0.0001;
        transform       unknown;
        myProcNo        5;
        neighbProcNo    4;
    }
    procBoundary5to6
    {
        type            processor;
        inGroups        1(processor);
        nFaces          74;
        startFace       13048;
        matchTolerance  0.0001;
        transform       unknown;
        myProcNo        5;
        neighbProcNo    6;
    }
)

// ************************************************************************* //
