/*--------------------------------*- C++ -*----------------------------------*\
| =========                 |                                                 |
| \\      /  F ield         | OpenFOAM: The Open Source CFD Toolbox           |
|  \\    /   O peration     | Version:  2312                                  |
|   \\  /    A nd           | Website:  www.openfoam.com                      |
|    \\/     M anipulation  |                                                 |
\*---------------------------------------------------------------------------*/
FoamFile
{
    version     2.0;
    format      ascii;
    arch        "LSB;label=32;scalar=64";
    class       polyBoundaryMesh;
    location    "constant/polyMesh";
    object      boundary;
}
// * * * * * * * * * * * * * * * * * * * * * * * * * * * * * * * * * * * * * //

11
(
    inletLow
    {
        type            patch;
        nFaces          0;
        startFace       6418;
    }
    inletJet
    {
        type            patch;
        nFaces          0;
        startFace       6418;
    }
    inletHigh
    {
        type            patch;
        nFaces          0;
        startFace       6418;
    }
    outlet
    {
        type            patch;
        nFaces          0;
        startFace       6418;
    }
    upperWall
    {
        type            patch;
        nFaces          0;
        startFace       6418;
    }
    lowerWall
    {
        type            patch;
        nFaces          53;
        startFace       6418;
    }
    frontAndBack
    {
        type            empty;
        inGroups        1(empty);
        nFaces          6544;
        startFace       6471;
    }
    procBoundary6to2
    {
        type            processor;
        inGroups        1(processor);
        nFaces          44;
        startFace       13015;
        matchTolerance  0.0001;
        transform       unknown;
        myProcNo        6;
        neighbProcNo    2;
    }
    procBoundary6to3
    {
        type            processor;
        inGroups        1(processor);
        nFaces          8;
        startFace       13059;
        matchTolerance  0.0001;
        transform       unknown;
        myProcNo        6;
        neighbProcNo    3;
    }
    procBoundary6to5
    {
        type            processor;
        inGroups        1(processor);
        nFaces          74;
        startFace       13067;
        matchTolerance  0.0001;
        transform       unknown;
        myProcNo        6;
        neighbProcNo    5;
    }
    procBoundary6to7
    {
        type            processor;
        inGroups        1(processor);
        nFaces          73;
        startFace       13141;
        matchTolerance  0.0001;
        transform       unknown;
        myProcNo        6;
        neighbProcNo    7;
    }
)

// ************************************************************************* //
