/*--------------------------------*- C++ -*----------------------------------*\
| =========                 |                                                 |
| \\      /  F ield         | OpenFOAM: The Open Source CFD Toolbox           |
|  \\    /   O peration     | Version:  v2506                                 |
|   \\  /    A nd           | Website:  www.openfoam.com                      |
|    \\/     M anipulation  |                                                 |
\*---------------------------------------------------------------------------*/
FoamFile
{
    version     2.0;
    format      ascii;
    class       volScalarField;
    object      k;
}
// * * * * * * * * * * * * * * * * * * * * * * * * * * * * * * * * * * * * * //

dimensions      [0 2 -2 0 0 0 0];

internalField   uniform 11;

boundaryField
{
    inletJet
    {
        type            fixedValue;
        value           uniform 11;
    }

    inletLow
    {
        type            fixedValue;
        value           uniform 11;
    }

    inletHigh
    {
        type            fixedValue;
        value           uniform 11;
    }

    outlet
    {
        type            inletOutlet;
        inletValue      uniform 11;
        value           uniform 11;
    }

    upperWall
    {
        type            inletOutlet;
        inletValue      uniform 11;
        value           uniform 11;
    }

    lowerWall
    {
        type            inletOutlet;
        inletValue      uniform 11;
        value           uniform 11;
    }

    frontAndBack
    {
        type            empty;
    }
}


// ************************************************************************* //
