/*--------------------------------*- C++ -*----------------------------------*\
| =========                 |                                                 |
| \\      /  F ield         | OpenFOAM: The Open Source CFD Toolbox           |
|  \\    /   O peration     | Version:  2312                                  |
|   \\  /    A nd           | Website:  www.openfoam.com                      |
|    \\/     M anipulation  |                                                 |
\*---------------------------------------------------------------------------*/
FoamFile
{
    version     2.0;
    format      ascii;
    arch        "LSB;label=32;scalar=64";
    class       polyBoundaryMesh;
    location    "constant/polyMesh";
    object      boundary;
}
// * * * * * * * * * * * * * * * * * * * * * * * * * * * * * * * * * * * * * //

10
(
    inletLow
    {
        type            patch;
        nFaces          0;
        startFace       6398;
    }
    inletJet
    {
        type            patch;
        nFaces          0;
        startFace       6398;
    }
    inletHigh
    {
        type            patch;
        nFaces          0;
        startFace       6398;
    }
    outlet
    {
        type            patch;
        nFaces          65;
        startFace       6398;
    }
    upperWall
    {
        type            patch;
        nFaces          0;
        startFace       6463;
    }
    lowerWall
    {
        type            patch;
        nFaces          51;
        startFace       6463;
    }
    frontAndBack
    {
        type            empty;
        inGroups        1(empty);
        nFaces          6514;
        startFace       6514;
    }
    procBoundary4to0
    {
        type            processor;
        inGroups        1(processor);
        nFaces          6;
        startFace       13028;
        matchTolerance  0.0001;
        transform       unknown;
        myProcNo        4;
        neighbProcNo    0;
    }
    procBoundary4to1
    {
        type            processor;
        inGroups        1(processor);
        nFaces          41;
        startFace       13034;
        matchTolerance  0.0001;
        transform       unknown;
        myProcNo        4;
        neighbProcNo    1;
    }
    procBoundary4to5
    {
        type            processor;
        inGroups        1(processor);
        nFaces          69;
        startFace       13075;
        matchTolerance  0.0001;
        transform       unknown;
        myProcNo        4;
        neighbProcNo    5;
    }
)

// ************************************************************************* //
